test/test_files/matlab_test_files/case2737sop.m
function mpc = case2737sop
%CASE2737SOP    Power flow data for Polish system - summer 2004 off-peak.
%   Please see CASEFORMAT for details on the case file format.
%
%   This case represents the Polish 400, 220 and 110 kV networks during
%   summer 2004 off-peak conditions. Multiple centrally dispatchable
%   generators at a bus have not been aggregated. Generators that are
%   not centrally dispatchable in the Polish energy market are given a
%   cost of zero.
%
%   This data was graciously provided by, and is distributed with the
%   permission of, Roman Korab <roman.korab@polsl.pl>.

%   MATPOWER
%   $Id: case2737sop.m,v 1.5 2010/03/10 18:08:13 ray Exp $

%% MATPOWER Case Format : Version 2
mpc.version = '2';

%%-----  Power Flow Data  -----%%
%% system MVA base
mpc.baseMVA = 100;

%% bus data
%    bus_i    type    Pd    Qd    Gs    Bs    area    Vm    Va    baseKV    zone    Vmax    Vmin    lam_P    lam_Q    mu_Vmax    mu_Vmin
mpc.bus = [
    1    1    0    0    0    0    1    1.0988371    3.1731556    220    1    1.11    0.95    89.4822    0.1770    0.0000    0.0000;
    2    1    0    0    0    0    1    1.1062317    2.1002592    220    1    1.11    0.95    89.8246    -0.0341    0.0000    0.0000;
    3    1    0    0    0    0    1    1.0814038    -12.414419    220    1    1.11    0.95    96.4024    -0.3433    0.0000    0.0000;
    4    1    0    0    0    0    1    1.0978935    -0.2625655    220    1    1.11    0.95    90.7381    0.0166    0.0000    0.0000;
    5    1    0    0    0    0    1    1.0979028    -0.25899449    220    1    1.11    0.95    90.7382    0.0171    0.0000    0.0000;
    6    1    0    0    0    0    1    1.0784645    -6.7111231    220    1    1.11    0.95    93.2099    -0.4768    0.0000    0.0000;
    7    1    0    0    0    0    1    1.0785472    -6.7055016    220    1    1.11    0.95    93.2067    -0.4782    0.0000    0.0000;
    8    1    0    0    0    -50    1    1.0422298    -5.3046136    400    1    1.05    0.95    92.8049    -0.7547    0.0000    0.0000;
    9    1    0    0    0    0    1    1.0422619    -5.3031789    400    1    1.05    0.95    92.8043    -0.7555    0.0000    0.0000;
    10    1    0    0    0    0    1    1.0715408    -6.753116    220    1    1.11    0.95    93.4502    -0.3129    0.0000    0.0000;
    11    1    0    0    0    0    1    1.0715132    -6.7557551    220    1    1.11    0.95    93.4515    -0.3114    0.0000    0.0000;
    12    1    0    0    0    0    1    1.0715104    -6.7512467    220    1    1.11    0.95    93.4509    -0.3098    0.0000    0.0000;
    13    1    0    0    0    0    1    1.07149    -6.755826    220    1    1.11    0.95    93.4514    -0.3099    0.0000    0.0000;
    14    1    0    0    0    -50    1    1.0362421    -4.249135    400    1    1.05    0.95    92.4628    -0.4494    0.0000    0.0000;
    15    1    0    0    0    0    1    1.05    -6.6753466    400    1    1.05    0.95    93.0327    -1.5740    0.0000    0.0000;
    16    1    0    0    0    0    1    1.05    -6.6753466    400    1    1.05    0.95    93.0325    -1.5754    2354.0866    0.0000;
    17    1    0    0    0    0    1    1.075175    -10.326271    220    1    1.11    0.95    95.1052    -0.0880    0.0000    0.0000;
    18    1    0    0    0    0    1    1.0751192    -10.32649    220    1    1.11    0.95    95.1042    -0.0861    0.0000    0.0000;
    19    1    0    0    0    0    1    1.1006118    0.29052844    220    1    1.11    0.95    90.4586    0.0218    0.0000    0.0000;
    20    1    0    0    0    0    1    1.1006331    0.28503371    220    1    1.11    0.95    90.4595    0.0218    0.0000    0.0000;
    21    1    0    0    0    0    1    1.0821751    -7.00751    220    1    1.11    0.95    93.3511    -0.1824    0.0000    0.0000;
    22    1    0    0    0    0    1    1.0821751    -7.00751    220    1    1.11    0.95    93.3511    -0.1824    0.0000    0.0000;
    23    1    0    0    0    0    1    1.0689354    -6.8094961    220    1    1.11    0.95    93.4699    -0.3584    0.0000    0.0000;
    24    1    0    0    0    0    1    1.1024425    0.68972441    220    1    1.11    0.95    90.3797    -0.0309    0.0000    0.0000;
    25    1    0    0    0    -50    1    1.0389197    -6.6165523    400    1    1.05    0.95    93.6600    -0.1245    0.0000    0.0000;
    26    2    48.178    65.087    0    0    1    1.1082562    3.5097454    220    1    1.11    0.95    89.3018    0.0000    0.0000    0.0000;
    27    2    28.145    35.087    0    0    1    1.1074115    2.0773566    220    1    1.11    0.95    89.8497    -0.0653    0.0000    0.0000;
    28    3    0    0    0    0    1    1.0449384    1.77808    400    1    1.05    0.95    90.2156    -0.0851    0.0000    0.0000;
    29    2    44.698    72    0    0    1    1.0449301    1.7863243    400    1    1.05    0.95    90.2126    -0.0850    0.0000    0.0000;
    30    1    0    0    0    0    1    1.0766538    -7.0072863    220    1    1.11    0.95    93.5523    -0.2272    0.0000    0.0000;
    31    1    0    0    0    0    1    1.0464577    0.79967202    400    1    1.05    0.95    90.3745    -0.1567    0.0000    0.0000;
    32    1    0    0    0    0    1    1.0693388    -6.9043214    220    1    1.11    0.95    93.5297    -0.2720    0.0000    0.0000;
    33    1    0    0    0    0    1    1.09915    -1.7078575    220    1    1.11    0.95    91.1525    0.0342    0.0000    0.0000;
    34    1    0    0    0    0    1    1.11    -3.5435543    220    2    1.11    0.95    90.8522    -4.4397    11730.0166    0.0000;
    35    1    0    0    0    0    1    1.0805053    -4.3551196    220    2    1.11    0.95    92.2726    -1.4203    0.0000    0.0000;
    36    1    0    0    0    0    1    1.0969905    -3.9054531    220    2    1.11    0.95    91.8665    -1.7375    0.0000    0.0000;
    37    1    0    0    0    0    1    1.0969464    -3.9069642    220    2    1.11    0.95    91.8676    -1.7350    0.0000    0.0000;
    38    1    0    0    0    0    1    1.1002849    -3.7899499    220    2    1.11    0.95    91.1584    -3.1562    0.0000    0.0000;
    39    1    0    0    0    0    1    1.1070837    -3.9625528    220    2    1.11    0.95    92.1847    -1.1120    0.0000    0.0000;
    40    1    0    0    0    0    1    1.1070251    -3.9655272    220    2    1.11    0.95    92.1859    -1.1109    0.0000    0.0000;
    41    1    0    0    0    0    1    1.0389057    -3.8675125    400    2    1.05    0.95    92.1440    -1.0852    0.0000    0.0000;
    42    2    13    0    0    0    1    1.0843581    -3.6251574    220    2    1.11    0.95    91.7425    -1.1989    0.0000    0.0000;
    43    2    13    0    0    0    1    1.0843882    -3.6162162    220    2    1.11    0.95    91.7398    -1.2022    0.0000    0.0000;
    44    2    25    0    0    0    1    1.0495182    -3.7143296    400    2    1.05    0.95    91.9966    -1.1649    0.0000    0.0000;
    45    1    0    0    0    0    1    1.0495379    -3.7138534    400    2    1.05    0.95    91.9947    -1.1665    0.0000    0.0000;
    46    1    0    0    0    0    1    1.1065925    -4.2521065    220    2    1.11    0.95    92.3785    -1.1117    0.0000    0.0000;
    47    1    0    0    0    0    1    1.0387693    -6.4543224    400    2    1.05    0.95    92.8916    -0.8887    0.0000    0.0000;
    48    1    0    0    0    0    1    1.0387728    -6.4585039    400    2    1.05    0.95    92.8935    -0.8885    0.0000    0.0000;
    49    1    0    0    0    0    1    1.0466528    -3.6073314    400    2    1.05    0.95    91.7028    -1.5086    0.0000    0.0000;
    50    1    0    0    0    0    1    1.1003654    -3.2193348    220    2    1.11    0.95    90.7898    -3.2463    0.0000    0.0000;
    51    1    0    0    0    0    1    1.1003403    -3.2167735    220    2    1.11    0.95    90.7899    -3.2444    0.0000    0.0000;
    52    1    0    0    0    0    1    1.0477994    -4.1910932    400    2    1.05    0.95    92.1922    -1.1842    0.0000    0.0000;
    53    1    0    0    0    0    1    1.0477959    -4.1902534    400    2    1.05    0.95    92.1922    -1.1841    0.0000    0.0000;
    54    1    0    0    0    0    1    1.0977199    -3.6115281    220    2    1.11    0.95    91.8352    -1.3695    0.0000    0.0000;
    55    2    13    0    0    0    1    1.0976897    -3.6048105    220    2    1.11    0.95    91.8311    -1.3710    0.0000    0.0000;
    56    2    13    0    0    0    1    1.045932    -3.7636954    400    2    1.05    0.95    92.0676    -1.1044    0.0000    0.0000;
    57    2    13    0    0    0    1    1.0459153    -3.7671604    400    2    1.05    0.95    92.0690    -1.1042    0.0000    0.0000;
    58    2    67.882    25.273    0    0    1    1.0901945    -3.8334578    220    2    1.11    0.95    91.6559    -1.9664    0.0000    0.0000;
    59    1    0    0    0    0    1    1.0902606    -3.8309695    220    2    1.11    0.95    91.6539    -1.9726    0.0000    0.0000;
    60    1    0    0    0    0    1    1.1032085    -4.3318607    220    2    1.11    0.95    92.3656    -1.1302    0.0000    0.0000;
    61    1    0    0    0    0    1    1.0898541    -4.0841342    220    2    1.11    0.95    92.0242    -1.3236    0.0000    0.0000;
    62    1    0    0    0    0    1    1.0898184    -4.0840559    220    2    1.11    0.95    92.0235    -1.3255    0.0000    0.0000;
    63    1    0    0    0    0    1    1.0375043    -4.6163516    400    2    1.05    0.95    92.3231    -0.9194    0.0000    0.0000;
    64    1    0    0    0    0    1    1.037527    -4.6243476    400    2    1.05    0.95    92.3259    -0.9197    0.0000    0.0000;
    65    1    0    224.802    0    0    1    1.0496172    -4.5991852    750    2    1.05    0.9    92.3232    -0.9027    0.0000    0.0000;
    66    1    0    0    0    0    1    1.1011486    -4.1127983    220    2    1.11    0.95    91.7378    -2.5436    0.0000    0.0000;
    67    1    0    0    0    0    1    1.101794    -4.0223494    220    2    1.11    0.95    91.6777    -2.5875    0.0000    0.0000;
    68    1    0    0    0    0    1    1.0969502    -2.7101621    220    2    1.11    0.95    90.6058    -3.0297    0.0000    0.0000;
    69    1    0    0    0    0    1    1.0999402    -1.5148341    220    3    1.11    0.95    91.1768    -0.2209    0.0000    0.0000;
    70    1    0    0    0    0    1    1.1007297    -4.4938609    220    3    1.11    0.95    92.2721    -0.9226    0.0000    0.0000;
    71    1    0    0    0    0    1    1.1007249    -4.4925157    220    3    1.11    0.95    92.2715    -0.9237    0.0000    0.0000;
    72    1    0    0    0    0    1    1.0862997    -4.3937257    220    3    1.11    0.95    92.3851    0.0114    0.0000    0.0000;
    73    1    0    0    0    0    1    1.086311    -4.3818206    220    3    1.11    0.95    92.3817    0.0111    0.0000    0.0000;
    74    1    0    0    0    0    1    1.0950289    -3.3714802    220    3    1.11    0.95    91.7651    -0.0664    0.0000    0.0000;
    75    1    0    0    0    0    1    1.0950083    -3.3728031    220    3    1.11    0.95    91.7660    -0.0664    0.0000    0.0000;
    76    1    0    0    0    0    1    1.0811849    -8.0356642    220    3    1.11    0.95    94.1814    0.0102    0.0000    0.0000;
    77    1    0    0    0    0    1    1.0811784    -8.0389669    220    3    1.11    0.95    94.1832    0.0103    0.0000    0.0000;
    78    2    27    70    0    0    1    1.0878054    -3.5711162    220    3    1.11    0.95    92.0186    0.0000    0.0000    0.0000;
    79    2    9    21    0    0    1    1.0882992    -4.1560165    220    3    1.11    0.95    92.3156    -0.0433    0.0000    0.0000;
    80    1    4.602    0.91    0    0    1    1.0872711    -4.2559736    220    3    1.11    0.95    92.4187    0.0157    0.0000    0.0000;
    81    1    0    0    0    0    1    1.0872656    -4.2561554    220    3    1.11    0.95    92.4191    0.0155    0.0000    0.0000;
    82    2    18    57    0    0    1    1.038756    -0.65564817    400    3    1.05    0.95    90.7825    -0.1757    0.0000    0.0000;
    83    1    0    0    0    0    1    1.1078773    -2.5120288    220    3    1.11    0.95    91.1798    -0.3557    0.0000    0.0000;
    84    1    0    0    0    0    1    1.0915351    -4.0744547    220    3    1.11    0.95    92.1077    -0.0084    0.0000    0.0000;
    85    1    0    0    0    0    1    1.0914976    -4.0757816    220    3    1.11    0.95    92.1087    -0.0085    0.0000    0.0000;
    86    1    32.969    -8.4    0    0    1    1.1005785    -1.6592085    220    3    1.11    0.95    91.2109    -0.2332    0.0000    0.0000;
    87    1    0    0    0    0    1    1.1005774    -1.6637056    220    3    1.11    0.95    91.2124    -0.2332    0.0000    0.0000;
    88    1    0    0    0    0    1    1.0865034    -3.6181237    220    3    1.11    0.95    91.9702    0.0584    0.0000    0.0000;
    89    1    0    0    0    0    1    1.0864764    -3.6185168    220    3    1.11    0.95    91.9702    0.0584    0.0000    0.0000;
    90    1    0    0    0    0    1    1.100397    -1.2887863    220    3    1.11    0.95    91.0457    -0.2127    0.0000    0.0000;
    91    1    0    0    0    0    1    1.1004123    -1.2922528    220    3    1.11    0.95    91.0462    -0.2136    0.0000    0.0000;
    92    1    0    0    0    0    1    1.0485753    0.0470111    400    3    1.05    0.95    90.7875    -0.2047    0.0000    0.0000;
    93    1    0    0    0    0    1    1.0485662    0.04600424    400    3    1.05    0.95    90.7877    -0.2046    0.0000    0.0000;
    94    1    0    0    0    0    1    1.089866    -3.7168499    220    3    1.11    0.95    91.9405    0.0092    0.0000    0.0000;
    95    1    0    0    0    0    1    1.0898885    -3.7217981    220    3    1.11    0.95    91.9419    0.0092    0.0000    0.0000;
    96    1    0    0    0    0    1    1.1006195    -2.9440143    220    3    1.11    0.95    91.4340    -0.1495    0.0000    0.0000;
    97    1    0    0    0    0    1    1.1006611    -2.9418413    220    3    1.11    0.95    91.4330    -0.1504    0.0000    0.0000;
    98    2    9.938    2.19    0    0    1    1.0911223    -3.8143676    220    3    1.11    0.95    92.1552    -0.1393    0.0000    0.0000;
    99    1    16.652    3.293    0    0    1    1.0911428    -3.8119524    220    3    1.11    0.95    92.1544    -0.1400    0.0000    0.0000;
    100    1    0    0    0    0    1    1.1007054    -4.4923524    220    3    1.11    0.95    92.2715    -0.9232    0.0000    0.0000;
    101    1    0    0    0    0    1    1.1007103    -4.493698    220    3    1.11    0.95    92.2721    -0.9221    0.0000    0.0000;
    102    1    0    0    0    0    1    1.0818145    -7.4626411    220    3    1.11    0.95    93.9537    0.0324    0.0000    0.0000;
    103    1    0    0    0    0    1    1.0818182    -7.4522797    220    3    1.11    0.95    93.9502    0.0325    0.0000    0.0000;
    104    2    14    40    0    0    1    1.0923127    -4.0814397    220    3    1.11    0.95    92.1322    0.0000    0.0000    0.0000;
    105    1    0    0    0    0    1    1.0922038    -4.1003381    220    3    1.11    0.95    92.1397    0.0016    0.0000    0.0000;
    106    2    7    18    0    0    1    1.0901045    -3.3210431    220    3    1.11    0.95    91.7962    0.0000    0.0000    0.0000;
    107    1    0    0    0    0    1    1.0900602    -3.3207564    220    3    1.11    0.95    91.7964    -0.0002    0.0000    0.0000;
    108    1    27.63    5.872    0    0    1    1.0943977    -3.3498601    220    3    1.11    0.95    91.9503    -0.2359    0.0000    0.0000;
    109    1    17.522    3.337    0    0    1    1.0944125    -3.3570878    220    3    1.11    0.95    91.9525    -0.2371    0.0000    0.0000;
    110    1    0    0    0    0    1    1.0856816    -4.6384324    220    3    1.11    0.95    92.6581    -0.1116    0.0000    0.0000;
    111    1    0    0    0    0    1    1.0876704    -4.1208111    220    3    1.11    0.95    92.2667    0.0927    0.0000    0.0000;
    112    1    0    0    0    0    1    1.0876767    -4.12152    220    3    1.11    0.95    92.2672    0.0922    0.0000    0.0000;
    113    1    0    0    0    0    1    1.0866617    -4.2664831    220    3    1.11    0.95    92.4521    0.0044    0.0000    0.0000;
    114    1    0    0    0    0    1    1.0866683    -4.2613941    220    3    1.11    0.95    92.4500    0.0042    0.0000    0.0000;
    115    1    0    0    0    0    1    1.0366664    -2.111324    400    3    1.05    0.95    91.4080    -0.2491    0.0000    0.0000;
    116    1    0    0    0    0    1    1.089168    -3.8412547    220    3    1.11    0.95    92.1785    -0.0890    0.0000    0.0000;
    117    2    8    15    0    0    1    1.0891509    -3.8318891    220    3    1.11    0.95    92.1757    -0.0883    0.0000    0.0000;
    118    1    0    0    0    0    1    1.0883397    -4.4254886    220    3    1.11    0.95    92.4705    -0.1887    0.0000    0.0000;
    119    1    0    0    0    0    1    1.0883542    -4.4242539    220    3    1.11    0.95    92.4696    -0.1896    0.0000    0.0000;
    120    1    0    0    0    0    1    1.0470801    -3.9626713    400    3    1.05    0.95    92.1277    -0.9603    0.0000    0.0000;
    121    1    0    0    0    0    1    1.0471181    -3.9587483    400    3    1.05    0.95    92.1260    -0.9605    0.0000    0.0000;
    122    1    0    0    0    0    1    1.043056    -1.9199464    400    3    1.05    0.95    91.3301    -0.3804    0.0000    0.0000;
    123    1    0    0    0    0    1    1.0431047    -1.9169615    400    3    1.05    0.95    91.3292    -0.3813    0.0000    0.0000;
    124    1    0    0    0    0    1    1.0851196    -4.710497    220    3    1.11    0.95    92.7212    -0.1134    0.0000    0.0000;
    125    1    2.929    0.867    0    0    1    1.0979375    -3.1116592    220    3    1.11    0.95    91.5511    -0.0543    0.0000    0.0000;
    126    2    19.898    27.707    0    0    1    1.0977572    -3.1061652    220    3    1.11    0.95    91.5514    -0.0514    0.0000    0.0000;
    127    2    12.2    25.8    0    0    1    1.03145    -1.7713769    400    3    1.05    0.95    91.2979    -0.1135    0.0000    0.0000;
    128    1    0    0    0    0    1    1.0313793    -1.7757389    400    3    1.05    0.95    91.2999    -0.1129    0.0000    0.0000;
    129    1    0    0    0    0    1    1.1004705    -1.753404    220    3    1.11    0.95    91.2543    -0.2341    0.0000    0.0000;
    130    1    0    0    0    0    1    1.1004246    -1.7541935    220    3    1.11    0.95    91.2542    -0.2333    0.0000    0.0000;
    131    1    0    0    0    0    1    1.0997933    -1.6360908    220    3    1.11    0.95    91.2028    -0.2119    0.0000    0.0000;
    132    2    137    9    0    0    1    1.080568    -8.4583986    220    3    1.11    0.95    94.3690    0.0000    0.0000    0.0000;
    133    2    137    6    0    0    1    1.080567    -8.4631219    220    3    1.11    0.95    94.3708    0.0000    0.0000    0.0000;
    134    1    0.515    1.973    0    0    1    1.1010272    -2.5005347    220    4    1.11    0.95    91.3665    0.0003    0.0000    0.0000;
    135    2    15.242    14.277    0    0    1    1.1010531    -2.4977759    220    4    1.11    0.95    91.3654    -0.0000    0.0000    0.0000;
    136    1    0    0    0    0    1    1.1090223    -2.907547    220    4    1.11    0.95    90.9609    -0.3853    0.0000    0.0000;
    137    1    0    0    0    0    1    1.1084034    -2.2905373    220    4    1.11    0.95    90.6905    -0.2757    0.0000    0.0000;
    138    1    0    0    0    0    1    1.0335809    -2.2051876    400    4    1.05    0.95    91.1851    -0.2239    0.0000    0.0000;
    139    1    0    0    0    0    1    1.0336006    -2.2078    400    4    1.05    0.95    91.1863    -0.2241    0.0000    0.0000;
    140    1    0    0    0    0    1    1.101858    -7.2447288    220    4    1.11    0.95    93.9426    -0.2038    0.0000    0.0000;
    141    1    0    0    0    0    1    1.0937023    -6.1672989    220    4    1.11    0.95    94.2776    0.0247    0.0000    0.0000;
    142    1    0    0    0    0    1    1.0937023    -6.1672989    220    4    1.11    0.95    94.2776    0.0247    0.0000    0.0000;
    143    1    0    0    0    0    1    1.102517    -6.0408918    220    4    1.11    0.95    93.6117    -0.4728    0.0000    0.0000;
    144    1    0    0    0    0    1    1.1064125    -3.4132987    220    4    1.11    0.95    91.1515    -0.2253    0.0000    0.0000;
    145    1    0    0    0    0    1    1.1064125    -3.4132987    220    4    1.11    0.95    91.1515    -0.2253    0.0000    0.0000;
    146    1    7.636    13.257    0    0    1    1.0990818    -4.310413    220    4    1.11    0.95    92.0820    0.0139    0.0000    0.0000;
    147    1    0    0    0    0    1    1.0991439    -4.3087158    220    4    1.11    0.95    92.0799    0.0134    0.0000    0.0000;
    148    2    10.87    14.867    0    0    1    1.0964007    -5.3203788    220    4    1.11    0.95    93.8293    -0.0074    0.0000    0.0000;
    149    1    0    0    0    0    1    1.0964815    -5.3319086    220    4    1.11    0.95    93.8358    -0.0086    0.0000    0.0000;
    150    2    10.989    15    0    0    1    1.0336749    -8.0337652    400    4    1.05    0.95    94.4951    -0.0000    0.0000    0.0000;
    151    2    20.672    21.479    0    0    1    1.0336702    -8.0315014    400    4    1.05    0.95    94.4943    -0.0004    0.0000    0.0000;
    152    1    0    0    0    0    1    1.098391    -6.7794234    220    4    1.11    0.95    93.9336    -0.2218    0.0000    0.0000;
    153    1    0    0    0    0    1    1.1077538    -4.3612447    220    4    1.11    0.95    92.2945    -0.9851    0.0000    0.0000;
    154    1    0    0    0    0    1    1.1077553    -4.3636195    220    4    1.11    0.95    92.2953    -0.9815    0.0000    0.0000;
    155    2    0    0    0    0    1    1.1054692    -0.91838753    220    4    1.11    0.95    90.1696    -0.0449    0.0000    0.0000;
    156    2    13.87    33    0    0    1    1.1054826    -0.91263647    220    4    1.11    0.95    90.1689    -0.0454    0.0000    0.0000;
    157    1    0    0    0    0    1    1.0208966    -0.02424863    400    4    1.05    0.95    90.2541    -0.0039    0.0000    0.0000;
    158    2    9.989    25    0    0    1    1.0208614    -0.01970188    400    4    1.05    0.95    90.2525    -0.0033    0.0000    0.0000;
    159    1    0    0    0    0    1    1.0982403    -6.1687192    220    4    1.11    0.95    94.2231    -0.0428    0.0000    0.0000;
    160    1    0    0    0    0    1    1.0982403    -6.1687192    220    4    1.11    0.95    94.2231    -0.0428    0.0000    0.0000;
    161    1    0    0    0    0    1    1.0381031    -2.850795    400    4    1.05    0.95    91.4175    -0.2802    0.0000    0.0000;
    162    1    0    0    0    0    1    1.0380799    -2.3257801    400    4    1.05    0.95    91.2251    -0.2678    0.0000    0.0000;
    163    1    0    0    0    0    1    1.0380786    -2.3254376    400    4    1.05    0.95    91.2250    -0.2678    0.0000    0.0000;
    164    2    11.664    11    0    0    1    1.1005618    -4.4219209    220    4    1.11    0.95    92.1080    -0.0000    0.0000    0.0000;
    165    2    11.564    10.667    0    0    1    1.1005897    -4.4365739    220    4    1.11    0.95    92.1152    -0.0002    0.0000    0.0000;
    166    1    0    0    0    0    1    1.1005897    -4.4365739    220    4    1.11    0.95    92.1152    -0.0002    0.0000    0.0000;
    167    1    0    0    0    0    1    1.1078578    -11.188191    220    4    1.11    0.95    96.2459    -0.3679    0.0000    0.0000;
    168    1    0    0    0    0    1    1.0930144    -6.2258786    220    4    1.11    0.95    94.3017    0.0429    0.0000    0.0000;
    169    1    0    0    0    0    1    1.1079187    -7.7992584    220    4    1.11    0.95    94.3401    -0.3672    0.0000    0.0000;
    170    1    0    0    0    0    1    1.10792    -7.8048332    220    4    1.11    0.95    94.3422    -0.3673    0.0000    0.0000;
    171    1    0    0    0    0    1    1.0273607    -8.0768261    400    4    1.05    0.95    94.4134    -0.2652    0.0000    0.0000;
    172    1    0    0    0    0    1    1.0273607    -8.0768261    400    4    1.05    0.95    94.4134    -0.2652    0.0000    0.0000;
    173    1    0    0    0    0    1    1.0972304    -4.9313669    220    4    1.11    0.95    92.7843    -0.1592    0.0000    0.0000;
    174    1    0    0    0    0    1    1.0972427    -4.9292116    220    4    1.11    0.95    92.7836    -0.1585    0.0000    0.0000;
    175    1    0    0    0    0    1    1.0936299    -6.2290183    220    4    1.11    0.95    92.8329    -0.0759    0.0000    0.0000;
    176    1    0    0    0    0    1    1.1086642    -2.8518944    220    4    1.11    0.95    90.9932    -0.3999    0.0000    0.0000;
    177    1    0    0    0    0    1    1.1086718    -2.8506968    220    4    1.11    0.95    90.9935    -0.4011    0.0000    0.0000;
    178    1    0    0    0    0    1    1.11    -3.0395622    220    4    1.11    0.95    91.1245    -0.7002    1510.5743    0.0000;
    179    1    0    0    0    0    1    1.11    -3.0395622    220    4    1.11    0.95    91.1245    -0.7002    0.0000    0.0000;
    180    2    3.13    1.5    0    0    1    1.11    -3.4532746    220    4    1.11    0.95    91.8736    -1.4635    3217.2702    0.0000;
    181    1    0    0    0    0    1    1.0976593    -5.2093053    220    4    1.11    0.95    92.8581    -0.3246    0.0000    0.0000;
    182    1    0    0    0    0    1    1.0906174    -11.550683    220    5    1.11    0.95    95.7641    0.0476    0.0000    0.0000;
    183    1    0    0    0    0    1    1.10155    -14.207909    220    5    1.11    0.95    96.9396    -0.0429    0.0000    0.0000;
    184    1    0    0    0    0    1    1.0352196    -13.758822    400    5    1.05    0.95    96.7166    0.0058    0.0000    0.0000;
    185    1    0    0    0    0    1    1.0352336    -13.750658    400    5    1.05    0.95    96.7128    0.0058    0.0000    0.0000;
    186    1    0    0    0    0    1    1.035852    -16.309541    400    5    1.05    0.95    97.9087    -0.0415    0.0000    0.0000;
    187    1    0    0    0    0    1    1.0358756    -16.315051    400    5    1.05    0.95    97.9110    -0.0420    0.0000    0.0000;
    188    1    0    0    0    0    1    1.1013411    -15.79941    220    5    1.11    0.95    98.0998    -0.0701    0.0000    0.0000;
    189    1    0    0    0    0    1    1.1013634    -15.799937    220    5    1.11    0.95    98.1000    -0.0706    0.0000    0.0000;
    190    1    0    0    0    0    1    1.0967955    -13.647542    220    5    1.11    0.95    96.6631    -0.0479    0.0000    0.0000;
    191    1    0    0    0    0    1    1.0967841    -13.641326    220    5    1.11    0.95    96.6619    -0.0478    0.0000    0.0000;
    192    1    0    0    0    0    1    1.0251116    -11.536722    400    5    1.05    0.95    96.1553    0.0868    0.0000    0.0000;
    193    1    0    0    0    0    1    1.0911228    -11.119661    220    5    1.11    0.95    95.6728    0.0611    0.0000    0.0000;
    194    1    0    0    0    0    1    1.091116    -11.118625    220    5    1.11    0.95    95.6729    0.0610    0.0000    0.0000;
    195    1    0    0    0    0    1    1.0431001    -16.235603    400    5    1.05    0.95    98.0356    -0.1232    0.0000    0.0000;
    196    1    0    0    0    0    1    1.043097    -16.2353    400    5    1.05    0.95    98.0359    -0.1231    0.0000    0.0000;
    197    1    0    0    0    0    1    1.0714251    -13.77591    220    5    1.11    0.95    97.5431    -0.0369    0.0000    0.0000;
    198    1    0    0    0    0    1    1.0714109    -13.77467    220    5    1.11    0.95    97.5417    -0.0368    0.0000    0.0000;
    199    1    0    0    0    -117    1    1.0269754    -15.550639    400    5    1.05    0.95    97.4200    0.1085    0.0000    0.0000;
    200    1    0    0    0    0    1    1.0270217    -15.543467    400    5    1.05    0.95    97.4168    0.1079    0.0000    0.0000;
...
];

%% generator data
%    bus    Pg    Qg    Qmax    Qmin    Vg    mBase    status    Pmax    Pmin    Pc1    Pc2    Qc1min    Qc1max    Qc2min    Qc2max    ramp_agc    ramp_10    ramp_30    ramp_q    apf    mu_Pmax    mu_Pmin    mu_Qmax    mu_Qmin
mpc.gen = [
    17    0    0    120    -22    1.07567    241.9    0    210    140    0    0    0    0    0    0    0    0    0    0    0    0.0000    0.0000    0.0000    0.0000;
    17    0    0    120    -22    1.07567    233.2    0    200    140    0    0    0    0    0    0    0    0    0    0    0    0.0000    0.0000    0.0000    0.0000;
    26    370    2.61068    190    -19    1.08527    415.9    1    370    290    0    0    0    0    0    0    0    0    0    0    0    13.2018    0.0000    0.0000    0.0000;
    27    360    -19    190    -19    1.08827    407.1    1    360    290    0    0    0    0    0    0    0    0    0    0    0    13.7497    0.0000    0.0000    0.0653;
    27    0    0    190    -19    1.08827    407.1    0    360    290    0    0    0    0    0    0    0    0    0    0    0    0.0000    0.0000    0.0000    0.0000;
    27    0    0    190    -19    1.08827    415.9    0    370    290    0    0    0    0    0    0    0    0    0    0    0    0.0000    0.0000    0.0000    0.0000;
    26    370    2.61068    190    -19    1.08527    415.9    1    370    290    0    0    0    0    0    0    0    0    0    0    0    13.2018    0.0000    0.0000    0.0000;
    28    370    -19    190    -19    1.027    415.9    1    370    290    0    0    0    0    0    0    0    0    0    0    0    14.1156    0.0000    0.0000    0.0851;
    28    0    0    190    -19    1.027    415.9    0    370    290    0    0    0    0    0    0    0    0    0    0    0    0.0000    0.0000    0.0000    0.0000;
    28    0    0    190    -19    1.027    415.9    0    370    290    0    0    0    0    0    0    0    0    0    0    0    0.0000    0.0000    0.0000    0.0000;
    29    0    0    190    -19    1.027    415.9    0    370    290    0    0    0    0    0    0    0    0    0    0    0    0.0000    0.0000    0.0000    0.0000;
    29    370    -19    190    -19    1.027    415.9    1    370    290    0    0    0    0    0    0    0    0    0    0    0    14.1126    0.0000    0.0000    0.0850;
    29    370    -19    190    -19    1.027    415.9    1    370    290    0    0    0    0    0    0    0    0    0    0    0    14.1126    0.0000    0.0000    0.0850;
    42    130    -34    135    -34    1.09086    253.9    1    215    130    0    0    0    0    0    0    0    0    0    0    0    0.0000    10.3075    0.0000    1.1989;
    42    0    0    130    -34    1.09086    242.7    0    205    135    0    0    0    0    0    0    0    0    0    0    0    0.0000    0.0000    0.0000    0.0000;
    42    0    0    145    -34    1.09086    267.7    0    225    110    0    0    0    0    0    0    0    0    0    0    0    0.0000    0.0000    0.0000    0.0000;
    43    0    0    145    -34    1.09091    267.7    0    225    120    0    0    0    0    0    0    0    0    0    0    0    0.0000    0.0000    0.0000    0.0000;
    43    130    -34    145    -34    1.09091    267.7    1    225    130    0    0    0    0    0    0    0    0    0    0    0    0.0000    10.3102    0.0000    1.2022;
    43    0    0    130    -34    1.09091    242.7    0    205    135    0    0    0    0    0    0    0    0    0    0    0    0.0000    0.0000    0.0000    0.0000;
    44    255    -47    363    -47    1.04817    646.5    1    535    255    0    0    0    0    0    0    0    0    0    0    0    0.0000    10.0534    0.0000    1.1649;
    44    0    0    348    -100    1.04817    659.3    0    560    250    0    0    0    0    0    0    0    0    0    0    0    0.0000    0.0000    0.0000    0.0000;
    54    0    0    104    -1    1.09127    247.9    0    225    129    0    0    0    0    0    0    0    0    0    0    0    0.0000    0.0000    0.0000    0.0000;
    55    129    -16    130    -16    1.09126    259.9    1    225    129    0    0    0    0    0    0    0    0    0    0    0    0.0000    13.5189    0.0000    1.3710;
    54    0    0    130    -16    1.09127    259.9    0    225    129    0    0    0    0    0    0    0    0    0    0    0    0.0000    0.0000    0.0000    0.0000;
    56    129    -16    130    -16    1.03933    259.9    1    225    129    0    0    0    0    0    0    0    0    0    0    0    0.0000    13.2824    0.0000    1.1044;
    57    129    -16    130    -16    1.03932    259.9    1    225    129    0    0    0    0    0    0    0    0    0    0    0    0.0000    13.2810    0.0000    1.1042;
    57    0    0    104    -1    1.03932    247.9    0    225    129    0    0    0    0    0    0    0    0    0    0    0    0.0000    0.0000    0.0000    0.0000;
    57    0    0    130    -16    1.03932    259.9    0    225    129    0    0    0    0    0    0    0    0    0    0    0    0.0000    0.0000    0.0000    0.0000;
    58    39.7    0    30    0    1.09864    57.7    1    39.7    39.7    0    0    0    0    0    0    0    0    0    0    0    91.6559    0.0000    0.0000    1.9664;
    78    140    21.9558    123    -15    1.06723    256.4    1    225    140    0    0    0    0    0    0    0    0    0    0    0    0.0000    3.2914    0.0000    0.0000;
    78    140    4.97652    123    -15    1.06723    256.4    1    225    140    0    0    0    0    0    0    0    0    0    0    0    0.0000    3.2914    0.0000    0.0000;
    79    0    0    123    -15    1.07077    252    0    220    140    0    0    0    0    0    0    0    0    0    0    0    0.0000    0.0000    0.0000    0.0000;
    79    0    0    123    -15    1.07077    256.4    0    225    140    0    0    0    0    0    0    0    0    0    0    0    0.0000    0.0000    0.0000    0.0000;
    79    140    -15    123    -15    1.07077    256.4    1    225    140    0    0    0    0    0    0    0    0    0    0    0    0.0000    2.9944    0.0000    0.0433;
    82    380    -31    232    -31    1.0186    445.2    1    380    220    0    0    0    0    0    0    0    0    0    0    0    0.7525    0.0000    0.0000    0.1757;
    82    0    0    228    -30    1.0186    434.6    0    370    220    0    0    0    0    0    0    0    0    0    0    0    0.0000    0.0000    0.0000    0.0000;
    98    8.998    0    1    0    1.07416    12    1    8.998    8.998    0    0    0    0    0    0    0    0    0    0    0    92.1552    0.0000    0.0000    0.1393;
    98    5.998    0    1    0    1.07416    6.1    1    5.998    5.998    0    0    0    0    0    0    0    0    0    0    0    92.1552    0.0000    0.0000    0.1393;
    104    134    78.277    123    -15    1.06927    256.4    1    225    134    0    0    0    0    0    0    0    0    0    0    0    0.0000    0.6478    0.0000    0.0000;
    105    0    0    123    -15    1.06917    256.4    0    225    134    0    0    0    0    0    0    0    0    0    0    0    0.0000    0.0000    0.0000    0.0000;
    106    79    3.09041    80    -2    1.06843    144.2    1    120    79    0    0    0    0    0    0    0    0    0    0    0    0.0000    2.2938    0.0000    0.0000;
    107    0    0    80    -2    1.0684    144.2    0    120    79    0    0    0    0    0    0    0    0    0    0    0    0.0000    0.0000    0.0000    0.0000;
    116    0    0    90    -20    1.07086    150    0    120    90    0    0    0    0    0    0    0    0    0    0    0    0.0000    0.0000    0.0000    0.0000;
    117    70    -2    82    -2    1.07082    145.3    1    120    70    0    0    0    0    0    0    0    0    0    0    0    0.0000    4.9443    0.0000    0.0883;
    118    0    0    40    0    1.07063    117    0    110    80    0    0    0    0    0    0    0    0    0    0    0    0.0000    0.0000    0.0000    0.0000;
    125    0    0    135    -35    1.0744    253.9    0    215    160    0    0    0    0    0    0    0    0    0    0    0    0.0000    0.0000    0.0000    0.0000;
    126    0    0    140    -35    1.07421    265    0    225    140    0    0    0    0    0    0    0    0    0    0    0    0.0000    0.0000    0.0000    0.0000;
    126    215    -35    135    -35    1.07421    253.9    1    215    160    0    0    0    0    0    0    0    0    0    0    0    0.3914    0.0000    0.0000    0.0514;
    127    225    -40    140    -40    1.01239    265    1    225    140    0    0    0    0    0    0    0    0    0    0    0    0.1379    0.0000    0.0000    0.1135;
    127    0    0    137    -40    1.01239    259.2    0    220    160    0    0    0    0    0    0    0    0    0    0    0    0.0000    0.0000    0.0000    0.0000;
    132    0    16.868    40    -38    1.06355    131.2    1    0    0    0    0    0    0    0    0    0    0    0    0    0    94.3590    0.0000    0.0000    0.0000;
    132    0    0    40    -38    1.06355    131.2    0    0    0    0    0    0    0    0    0    0    0    0    0    0    0.0000    0.0000    0.0000    0.0000;
    133    0    0    40    -38    1.06355    131.2    0    0    0    0    0    0    0    0    0    0    0    0    0    0    0.0000    0.0000    0.0000    0.0000;
    133    0    13.9428    40    -38    1.06355    131.2    1    0    0    0    0    0    0    0    0    0    0    0    0    0    94.3608    0.0000    0.0000    0.0000;
    134    0    0    90    0    1.0664    150    0    120    100    0    0    0    0    0    0    0    0    0    0    0    0.0000    0.0000    0.0000    0.0000;
    134    0    0    90    0    1.0664    150    0    120    100    0    0    0    0    0    0    0    0    0    0    0    0.0000    0.0000    0.0000    0.0000;
    135    100    27.1095    90    0    1.06642    150    1    120    100    0    0    0    0    0    0    0    0    0    0    0    0.0000    1.0646    0.0000    0.0000;
    146    0    0    12    0    1.05776    51.4    0    50    30    0    0    0    0    0    0    0    0    0    0    0    0.0000    0.0000    0.0000    0.0000;
    146    0    0    12    0    1.05776    51.4    0    50    30    0    0    0    0    0    0    0    0    0    0    0    0.0000    0.0000    0.0000    0.0000;
    147    0    0    90    0    1.05781    150    0    120    90    0    0    0    0    0    0    0    0    0    0    0    0.0000    0.0000    0.0000    0.0000;
    148    0    0    149    -48    1.09091    267.4    0    222    90    0    0    0    0    0    0    0    0    0    0    0    0.0000    0.0000    0.0000    0.0000;
    148    0    0    149    -48    1.09091    253.4    0    205    135    0    0    0    0    0    0    0    0    0    0    0    0.0000    0.0000    0.0000    0.0000;
    148    0    0    149    -48    1.09091    253.4    0    205    135    0    0    0    0    0    0    0    0    0    0    0    0.0000    0.0000    0.0000    0.0000;
    148    90    -48    149    -48    1.09091    267.4    1    222    90    0    0    0    0    0    0    0    0    0    0    0    0.0000    22.1807    0.0000    0.0074;
    150    90    24.8292    123    -23    1.01688    253.8    1    222    90    0    0    0    0    0    0    0    0    0    0    0    0.0000    21.5149    0.0000    0.0000;
    151    90    -41.4177    149    -48    1.01688    267.4    1    222    90    0    0    0    0    0    0    0    0    0    0    0    0.0000    21.5157    0.0000    0.0004;
    151    0    0    123    -23    1.01688    253.8    0    222    90    0    0    0    0    0    0    0    0    0    0    0    0.0000    0.0000    0.0000    0.0000;
    155    94    -53    149    -53    1.08864    278.3    1    235    94    0    0    0    0    0    0    0    0    0    0    0    0.0000    8.6704    0.0000    0.0449;
    155    0    0    149    -53    1.08864    278.3    0    235    94    0    0    0    0    0    0    0    0    0    0    0    0.0000    0.0000    0.0000    0.0000;
    155    0    0    120    0    1.08864    287.3    0    261    104    0    0    0    0    0    0    0    0    0    0    0    0.0000    0.0000    0.0000    0.0000;
    155    0    0    132    -40    1.08864    292.5    0    261    104    0    0    0    0    0    0    0    0    0    0    0    0.0000    0.0000    0.0000    0.0000;
    156    0    0    120    0    1.08864    287.3    0    261    104    0    0    0    0    0    0    0    0    0    0    0    0.0000    0.0000    0.0000    0.0000;
    156    130    -22    117    -22    1.08864    236    1    205    130    0    0    0    0    0    0    0    0    0    0    0    0.0000    8.6711    0.0000    0.0454;
    156    120    -20    109    -20    1.08864    233.1    1    206    120    0    0    0    0    0    0    0    0    0    0    0    0.0000    8.6711    0.0000    0.0454;
    156    0    0    109    -20    1.08864    233.1    0    206    120    0    0    0    0    0    0    0    0    0    0    0    0.0000    0.0000    0.0000    0.0000;
    158    120    -20    109    -20    0.99847    233.1    1    206    120    0    0    0    0    0    0    0    0    0    0    0    0.0000    8.5875    0.0000    0.0033;
    164    0    0    104    -23    1.05768    225.4    0    200    150    0    0    0    0    0    0    0    0    0    0    0    0.0000    0.0000    0.0000    0.0000;
    164    200    64.2167    104    -23    1.05768    225.4    1    200    150    0    0    0    0    0    0    0    0    0    0    0    2.8880    0.0000    0.0000    0.0000;
    165    200    75.1437    104    -23    1.05768    225.4    1    200    150    0    0    0    0    0    0    0    0    0    0    0    2.8952    0.0000    0.0000    0.0002;
    165    0    0    104    -23    1.05768    225.4    0    200    150    0    0    0    0    0    0    0    0    0    0    0    0.0000    0.0000    0.0000    0.0000;
    180    120    0    110    0    1.09138    219.5    1    120    120    0    0    0    0    0    0    0    0    0    0    0    91.8736    0.0000    0.0000    1.4635;
    205    0    39.4264    80    -30.001    0.98664    196.1    1    0    0    0    0    0    0    0    0    0    0    0    0    0    98.1653    0.0000    0.0000    0.0000;
    205    0    -16.382    80    -30.001    0.98664    196.1    1    0    0    0    0    0    0    0    0    0    0    0    0    0    98.1653    0.0000    0.0000    0.0000;
    205    0    0    110    -60    0.98664    210.1    0    0    0    0    0    0    0    0    0    0    0    0    0    0    0.0000    0.0000    0.0000    0.0000;
    206    0    0    110    -60    0.98669    210.1    0    0    0    0    0    0    0    0    0    0    0    0    0    0    0.0000    0.0000    0.0000    0.0000;
    215    23    0    20    0    1.09091    58.5    1    23    23    0    0    0    0    0    0    0    0    0    0    0    93.5881    0.0000    0.0000    0.9775;
    215    0    0    20    0    1.09091    53.9    0    0    0    0    0    0    0    0    0    0    0    0    0    0    0.0000    0.0000    0.0000    0.0000;
    215    0    0    20    0    1.09091    53.9    0    0    0    0    0    0    0    0    0    0    0    0    0    0    0.0000    0.0000    0.0000    0.0000;
    215    7    0    20    0    1.09091    30.5    1    7    7    0    0    0    0    0    0    0    0    0    0    0    93.5881    0.0000    0.0000    0.9775;
    221    1.55    0    1    0    1.0868    2.3    1    1.55    1.55    0    0    0    0    0    0    0    0    0    0    0    91.7879    0.0000    0.0000    0.2327;
    222    1.55    0.262495    1    0    1.0748    2.3    1    1.55    1.55    0    0    0    0    0    0    0    0    0    0    0    91.9673    0.0000    0.0000    0.0000;
    240    6.3    4.18608    6    0    1.05704    9.8    1    6.3    6.3    0    0    0    0    0    0    0    0    0    0    0    95.2580    0.0000    0.0000    0.0000;
    247    370    -19    190    -19    1.02878    415.9    1    370    290    0    0    0    0    0    0    0    0    0    0    0    13.5459    0.0000    0.0018    0.0000;
    310    0    0    7    0    1.07912    27.9    0    0    0    0    0    0    0    0    0    0    0    0    0    0    0.0000    0.0000    0.0000    0.0000;
    310    0    0    7    0    1.07912    27.9    0    0    0    0    0    0    0    0    0    0    0    0    0    0    0.0000    0.0000    0.0000    0.0000;
    310    11    7    7    4    1.07912    30.8    1    11    11    0    0    0    0    0    0    0    0    0    0    0    90.9502    0.0000    0.0545    0.0000;
    310    0    0    7    0    1.07912    27.9    0    0    0    0    0    0    0    0    0    0    0    0    0    0    0.0000    0.0000    0.0000    0.0000;
    310    0    0    6    0    1.07912    27.7    0    0    0    0    0    0    0    0    0    0    0    0    0    0    0.0000    0.0000    0.0000    0.0000;
    310    0    0    7    0    1.07912    27.9    0    0    0    0    0    0    0    0    0    0    0    0    0    0    0.0000    0.0000    0.0000    0.0000;
    310    0    0    7    0    1.07912    27.9    0    0    0    0    0    0    0    0    0    0    0    0    0    0    0.0000    0.0000    0.0000    0.0000;
    311    0    0    15    0    1.07689    36.7    0    0    0    0    0    0    0    0    0    0    0    0    0    0    0.0000    0.0000    0.0000    0.0000;
    311    0    0    15    0    1.07689    57    0    0    0    0    0    0    0    0    0    0    0    0    0    0    0.0000    0.0000    0.0000    0.0000;
    312    16    11.5985    15    0    1.07487    36.7    1    16    16    0    0    0    0    0    0    0    0    0    0    0    91.4685    0.0000    0.0000    0.0000;
    312    0    0    15    0    1.07487    57    0    0    0    0    0    0    0    0    0    0    0    0    0    0    0.0000    0.0000    0.0000    0.0000;
    314    25    5.94042    20    0    1.08518    53.9    1    25    25    0    0    0    0    0    0    0    0    0    0    0    90.6475    0.0000    0.0000    0.0000;
    314    0    0    20    0    1.08518    53.9    0    0    0    0    0    0    0    0    0    0    0    0    0    0    0.0000    0.0000    0.0000    0.0000;
    315    0    0    40    0    1.07925    107.7    0    0    0    0    0    0    0    0    0    0    0    0    0    0    0.0000    0.0000    0.0000    0.0000;
    323    2.5    3    3    0    1.08432    4.1    1    2.5    2.5    0    0    0    0    0    0    0    0    0    0    0    90.7163    0.0000    0.0092    0.0000;
    366    40    6.08732    12    0    1.06091    47.8    1    40    40    0    0    0    0    0    0    0    0    0    0    0    93.8344    0.0000    0.0000    0.0000;
    367    40    5.46894    12    0    1.06011    47.8    1    40    40    0    0    0    0    0    0    0    0    0    0    0    93.4746    0.0000    0.0000    0.0000;
    368    40    4.52361    12    0    1.06213    47.8    1    40    40    0    0    0    0    0    0    0    0    0    0    0    93.6481    0.0000    0.0000    0.0000;
    369    40    0    12    0    1.06706    47.8    1    40    40    0    0    0    0    0    0    0    0    0    0    0    93.3527    0.0000    0.0000    0.0144;
    386    140    -45.4985    138    -47    1.08555    251.3    1    210    140    0    0    0    0    0    0    0    0    0    0    0    0.0000    18.7728    0.0000    0.0000;
    386    0    0    10    0    1.08555    26.9    0    25    12    0    0    0    0    0    0    0    0    0    0    0    0.0000    0.0000    0.0000    0.0000;
    387    10    0    10    0    1.06898    19.7    1    17    10    0    0    0    0    0    0    0    0    0    0    0    0.0000    17.4105    0.0000    0.1532;
    444    1.5    1.56509    2    0    1.03619    3.6    1    1.5    1.5    0    0    0    0    0    0    0    0    0    0    0    90.2706    0.0000    0.0000    0.0000;
    453    5.21    0    2    0    1.0809    6.1    1    5.21    5.21    0    0    0    0    0    0    0    0    0    0    0    92.3977    0.0000    0.0000    0.3884;
    453    0    0    2    0    1.0809    6.1    0    0    0    0    0    0    0    0    0    0    0    0    0    0    0.0000    0.0000    0.0000    0.0000;
    486    1.4    0.7    0.7    0    1.03025    1.7    1    1.4    1.4    0    0    0    0    0    0    0    0    0    0    0    91.1651    0.0000    0.0153    0.0000;
    537    25    0    14    0    1.06135    53.9    1    25    25    0    0    0    0    0    0    0    0    0    0    0    93.9619    0.0000    0.0000    0.1009;
    537    0    0    14    0    1.06135    34.9    0    0    0    0    0    0    0    0    0    0    0    0    0    0    0.0000    0.0000    0.0000    0.0000;
    537    0    0    14    0    1.06135    34    0    0    0    0    0    0    0    0    0    0    0    0    0    0    0.0000    0.0000    0.0000    0.0000;
    537    0    0    14    0    1.06135    105.9    0    0    0    0    0    0    0    0    0    0    0    0    0    0    0.0000    0.0000    0.0000    0.0000;
    537    0    0    14    0    1.06135    105.9    0    0    0    0    0    0    0    0    0    0    0    0    0    0    0.0000    0.0000    0.0000    0.0000;
    538    20    0    17.5    0    1.06273    36.5    1    20    20    0    0    0    0    0    0    0    0    0    0    0    93.8344    0.0000    0.0000    0.0782;
    538    20    0    17.5    0    1.06273    35.6    1    20    20    0    0    0    0    0    0    0    0    0    0    0    93.8344    0.0000    0.0000    0.0782;
    538    0    0    17.5    0    1.06273    126.2    0    0    0    0    0    0    0    0    0    0    0    0    0    0    0.0000    0.0000    0.0000    0.0000;
    538    0    0    17.5    0    1.06273    106.4    0    0    0    0    0    0    0    0    0    0    0    0    0    0    0.0000    0.0000    0.0000    0.0000;
    552    1.4    0.7    0.7    0    1.05556    1.7    1    1.4    1.4    0    0    0    0    0    0    0    0    0    0    0    94.5110    0.0000    0.0144    0.0000;
    560    22.5    2.55494    10    0    1.05752    35.4    1    22.5    22.5    0    0    0    0    0    0    0    0    0    0    0    94.3389    0.0000    0.0000    0.0000;
    560    0    0    5    0    1.05752    28.4    0    0    0    0    0    0    0    0    0    0    0    0    0    0    0.0000    0.0000    0.0000    0.0000;
    560    0    0    5    0    1.05752    26.5    0    0    0    0    0    0    0    0    0    0    0    0    0    0    0.0000    0.0000    0.0000    0.0000;
    560    0    0    5    0    1.05752    30.4    0    0    0    0    0    0    0    0    0    0    0    0    0    0    0.0000    0.0000    0.0000    0.0000;
    560    0    0    5    0    1.05752    34.4    0    0    0    0    0    0    0    0    0    0    0    0    0    0    0.0000    0.0000    0.0000    0.0000;
    561    22.5    0    10    0    1.0595    35.4    1    22.5    22.5    0    0    0    0    0    0    0    0    0    0    0    94.1928    0.0000    0.0000    0.0742;
    561    0    0    5    0    1.0595    34.4    0    0    0    0    0    0    0    0    0    0    0    0    0    0    0.0000    0.0000    0.0000    0.0000;
    561    0    0    5    0    1.0595    26.5    0    0    0    0    0    0    0    0    0    0    0    0    0    0    0.0000    0.0000    0.0000    0.0000;
    561    0    0    5    0    1.0595    34.4    0    0    0    0    0    0    0    0    0    0    0    0    0    0    0.0000    0.0000    0.0000    0.0000;
    574    1    1.23635    4    0    1.07812    8.9    1    1    1    0    0    0    0    0    0    0    0    0    0    0    91.4956    0.0000    0.0000    0.0000;
    627    76    0    30    0    1.09176    97.7    1    76    76    0    0    0    0    0    0    0    0    0    0    0    88.4239    0.0000    0.0000    1.5661;
    627    30    0    30    0    1.09176    46.8    1    30    30    0    0    0    0    0    0    0    0    0    0    0    88.4239    0.0000    0.0000    1.5661;
    665    130    -34    145    -34    1.09108    267.7    1    225    130    0    0    0    0    0    0    0    0    0    0    0    0.0000    11.0839    0.0000    0.5354;
    666    0    0    145    -34    1.09079    267.7    0    225    130    0    0    0    0    0    0    0    0    0    0    0    0.0000    0.0000    0.0000    0.0000;
    686    140    0    30    0    1.09115    182.5    1    140    140    0    0    0    0    0    0    0    0    0    0    0    90.0530    0.0000    0.0000    2.7870;
    686    47    0    30    0    1.09115    77.5    1    47    47    0    0    0    0    0    0    0    0    0    0    0    90.0530    0.0000    0.0000    2.7870;
    692    1.98    0    1    0    1.09065    2.7    1    1.98    1.98    0    0    0    0    0    0    0    0    0    0    0    90.7605    0.0000    0.0000    2.7235;
    717    1.32    0    1.3    0    1.08239    10.1    1    1.32    1.32    0    0    0    0    0    0    0    0    0    0    0    91.7403    0.0000    0.0000    1.5536;
    741    129    -16    130    -16    1.09099    259.9    1    225    129    0    0    0    0    0    0    0    0    0    0    0    0.0000    14.4117    0.0000    1.6087;
    764    82    0    30    0    1.06965    105.4    1    82    82    0    0    0    0    0    0    0    0    0    0    0    91.3594    0.0000    0.0000    1.0841;
    793    1    0    0.5    0    1.04724    8.3    1    1    1    0    0    0    0    0    0    0    0    0    0    0    93.8724    0.0000    0.0000    1.0621;
    797    0    0    23    0    1.0493    71.9    0    0    0    0    0    0    0    0    0    0    0    0    0    0    0.0000    0.0000    0.0000    0.0000;
    797    0    0    23    0    1.0493    71.9    0    0    0    0    0    0    0    0    0    0    0    0    0    0    0.0000    0.0000    0.0000    0.0000;
    797    0    0    11    0    1.0493    32.9    0    0    0    0    0    0    0    0    0    0    0    0    0    0    0.0000    0.0000    0.0000    0.0000;
    797    0    0    10    0    1.0493    32.6    0    0    0    0    0    0    0    0    0    0    0    0    0    0    0.0000    0.0000    0.0000    0.0000;
    808    0    0    10    0    1.07568    125.4    0    125    84    0    0    0    0    0    0    0    0    0    0    0    0.0000    0.0000    0.0000    0.0000;
    809    92    0    10    0    1.09118    125.4    1    125    92    0    0    0    0    0    0    0    0    0    0    0    0.0000    22.6822    0.0000    1.7147;
    846    14.996    0    8.1    0    1.07424    33    1    14.996    14.996    0    0    0    0    0    0    0    0    0    0    0    92.4459    0.0000    0.0000    0.7630;
    846    14.996    0    8.1    0    1.07424    33    1    14.996    14.996    0    0    0    0    0    0    0    0    0    0    0    92.4459    0.0000    0.0000    0.7630;
    846    0    0    0    0    1.07424    19    0    0    0    0    0    0    0    0    0    0    0    0    0    0    0.0000    0.0000    0.0000    0.0000;
    846    0    0    0    0    1.07424    19    0    0    0    0    0    0    0    0    0    0    0    0    0    0    0.0000    0.0000    0.0000    0.0000;
    878    34.99    5.31522    41.2    0    1.08146    87.7    1    34.99    34.99    0    0    0    0    0    0    0    0    0    0    0    91.4588    0.0000    0.0000    0.0000;
    901    0    0    45    -10    1.07665    65.8    0    0    0    0    0    0    0    0    0    0    0    0    0    0    0.0000    0.0000    0.0000    0.0000;
    901    44.988    -8.16076    45    -10    1.07665    71.1    1    44.988    44.988    0    0    0    0    0    0    0    0    0    0    0    91.2640    0.0000    0.0000    0.0000;
    901    0    0    45    -10    1.07665    71.1    0    0    0    0    0    0    0    0    0    0    0    0    0    0    0.0000    0.0000    0.0000    0.0000;
    976    0    0    110    -40    1.08472    162.2    0    0    0    0    0    0    0    0    0    0    0    0    0    0    0.0000    0.0000    0.0000    0.0000;
    977    99.973    8.09625    110    -40    1.08973    162.2    1    99.973    99.973    0    0    0    0    0    0    0    0    0    0    0    91.3097    0.0000    0.0000    0.0000;
    981    0    0    0    0    1.08908    16.8    0    0    0    0    0    0    0    0    0    0    0    0    0    0    0.0000    0.0000    0.0000    0.0000;
    1002    225.568    -32    240    -32    1.09091    454.5    1    386    220    0    0    0    0    0    0    0    0    0    0    0    0.0000    0.0000    0.0000    0.0976;
    1003    0    0    227    -30    1.08396    434.1    0    370    220    0    0    0    0    0    0    0    0    0    0    0    0.0000    0.0000    0.0000    0.0000;
    1007    5.998    1.447    1.447    0    1.08685    7.1    1    5.998    5.998    0    0    0    0    0    0    0    0    0    0    0    91.5495    0.0000    0.0651    0.0000;
    1006    3.999    0.447    0.447    0    1.08685    4    1    3.999    3.999    0    0    0    0    0    0    0    0    0    0    0    91.5486    0.0000    0.0654    0.0000;
    1007    3.999    0.447    0.447    0    1.08685    5    1    3.999    3.999    0    0    0    0    0    0    0    0    0    0    0    91.5495    0.0000    0.0651    0.0000;
    1007    0    0    0    0    1.08685    6    0    0    0    0    0    0    0    0    0    0    0    0    0    0    0.0000    0.0000    0.0000    0.0000;
    1008    0    0    110    -40    1.08742    174.1    0    0    0    0    0    0    0    0    0    0    0    0    0    0    0.0000    0.0000    0.0000    0.0000;
    1014    14.996    0    4.8    0    1.08325    20.6    1    14.996    14.996    0    0    0    0    0    0    0    0    0    0    0    92.3810    0.0000    0.0000    0.0255;
    1014    0    0    0    0    1.08325    12.8    0    0    0    0    0    0    0    0    0    0    0    0    0    0    0.0000    0.0000    0.0000    0.0000;
    1014    0    0    0    0    1.08325    12.5    0    0    0    0    0    0    0    0    0    0    0    0    0    0    0.0000    0.0000    0.0000    0.0000;
    1016    0    0    0    0    1.08029    20    0    0    0    0    0    0    0    0    0    0    0    0    0    0    0.0000    0.0000    0.0000    0.0000;
    1016    0    0    0    0    1.08029    19    0    0    0    0    0    0    0    0    0    0    0    0    0    0    0.0000    0.0000    0.0000    0.0000;
    1025    11.997    18    18    9    1.07158    30    1    11.997    11.997    0    0    0    0    0    0    0    0    0    0    0    94.3556    0.0000    0.0130    0.0000;
    1026    0    0    18    9    1.07151    30    0    0    0    0    0    0    0    0    0    0    0    0    0    0    0.0000    0.0000    0.0000    0.0000;
    1027    0    0    14    10.5    1.07147    32.2    0    0    0    0    0    0    0    0    0    0    0    0    0    0    0.0000    0.0000    0.0000    0.0000;
    1114    0    0    37.5    16.8    1.08691    62.5    0    0    0    0    0    0    0    0    0    0    0    0    0    0    0.0000    0.0000    0.0000    0.0000;
    1115    0    0    37.5    7.5    1.0759    62.5    0    0    0    0    0    0    0    0    0    0    0    0    0    0    0.0000    0.0000    0.0000    0.0000;
    1114    39.989    7.5    37.5    7.5    1.08691    62.5    1    39.989    39.989    0    0    0    0    0    0    0    0    0    0    0    91.9086    0.0000    0.0000    0.0133;
    1116    0    0    37.5    16.8    1.08062    62.5    0    0    0    0    0    0    0    0    0    0    0    0    0    0    0.0000    0.0000    0.0000    0.0000;
    1153    16.995    0    5.251    0    1.07018    30.5    1    16.995    16.995    0    0    0    0    0    0    0    0    0    0    0    93.1565    0.0000    0.0000    0.0103;
    1153    0    0    0    0    1.07018    6    0    0    0    0    0    0    0    0    0    0    0    0    0    0    0.0000    0.0000    0.0000    0.0000;
    1154    16.995    0    5.251    0    1.07027    30.5    1    16.995    16.995    0    0    0    0    0    0    0    0    0    0    0    93.1437    0.0000    0.0000    0.0117;
    1154    0    0    0    0    1.07027    25    0    0    0    0    0    0    0    0    0    0    0    0    0    0    0.0000    0.0000    0.0000    0.0000;
...